
     RDKit          3D

 15 14  0  0  0  0  0  0  0  0999 V2000
   -2.3488    0.3085   -0.1051 C   0  0  0  0  0  0  0  0  0  0  0  0
   -1.1352   -0.5790    0.0904 C   0  0  0  0  0  0  0  0  0  0  0  0
    0.0945    0.1467   -0.1506 N   0  0  0  0  0  0  0  0  0  0  0  0
    1.2787   -0.5311   -0.3439 C   0  0  0  0  0  0  0  0  0  0  0  0
    2.4871    0.3618   -0.4364 C   0  0  0  0  0  0  0  0  0  0  0  0
    1.3635   -1.7518   -0.4236 O   0  0  0  0  0  0  0  0  0  0  0  0
   -3.2684   -0.2535    0.0837 H   0  0  0  0  0  0  0  0  0  0  0  0
   -2.3870    0.6986   -1.1276 H   0  0  0  0  0  0  0  0  0  0  0  0
   -2.3231    1.1645    0.5775 H   0  0  0  0  0  0  0  0  0  0  0  0
   -1.1004   -0.9575    1.1176 H   0  0  0  0  0  0  0  0  0  0  0  0
   -1.1827   -1.4406   -0.5843 H   0  0  0  0  0  0  0  0  0  0  0  0
    0.1525    1.1003    0.1826 H   0  0  0  0  0  0  0  0  0  0  0  0
    3.0439    0.3093    0.5027 H   0  0  0  0  0  0  0  0  0  0  0  0
    2.2051    1.4009   -0.6282 H   0  0  0  0  0  0  0  0  0  0  0  0
    3.1203    0.0228   -1.2610 H   0  0  0  0  0  0  0  0  0  0  0  0
  1  2  1  0
  2  3  1  0
  3  4  1  0
  4  5  1  0
  4  6  2  0
  1  7  1  0
  1  8  1  0
  1  9  1  0
  2 10  1  0
  2 11  1  0
  3 12  1  0
  5 13  1  0
  5 14  1  0
  5 15  1  0
M  END
